/*--------------------------------*- C++ -*----------------------------------*\
  =========                 |
  \\      /  F ield         | OpenFOAM: The Open Source CFD Toolbox
   \\    /   O peration     | Website:  https://openfoam.org
    \\  /    A nd           | Version:  9
     \\/     M anipulation  |
\*---------------------------------------------------------------------------*/
FoamFile
{
    format      binary;
    class       polyBoundaryMesh;
    location    "constant/polyMesh";
    object      boundary;
}
// * * * * * * * * * * * * * * * * * * * * * * * * * * * * * * * * * * * * * //

75
(
    frontAndBack
    {
        type            patch;
        nFaces          126;
        startFace       261916;
    }
    inlet
    {
        type            patch;
        nFaces          0;
        startFace       262042;
    }
    outlet
    {
        type            patch;
        nFaces          36;
        startFace       262042;
    }
    lowerWall
    {
        type            wall;
        inGroups        List<word> 1(wall);
        nFaces          1881;
        startFace       262078;
    }
    upperWall
    {
        type            patch;
        nFaces          56;
        startFace       263959;
    }
    motorBike_frt-fairing:001%1
    {
        type            wall;
        inGroups        List<word> 
2
(
motorBikeGroup
wall
)
;
        nFaces          0;
        startFace       264015;
    }
    motorBike_windshield:002%2
    {
        type            wall;
        inGroups        List<word> 
2
(
motorBikeGroup
wall
)
;
        nFaces          0;
        startFace       264015;
    }
    motorBike_rr-wh-rim:005%5
    {
        type            wall;
        inGroups        List<word> 
2
(
motorBikeGroup
wall
)
;
        nFaces          0;
        startFace       264015;
    }
    motorBike_rr-wh-rim:010%10
    {
        type            wall;
        inGroups        List<word> 
2
(
motorBikeGroup
wall
)
;
        nFaces          124;
        startFace       264015;
    }
    motorBike_fr-wh-rim:011%11
    {
        type            wall;
        inGroups        List<word> 
2
(
motorBikeGroup
wall
)
;
        nFaces          0;
        startFace       264139;
    }
    motorBike_fr-wh-brake-disk:012%12
    {
        type            wall;
        inGroups        List<word> 
2
(
motorBikeGroup
wall
)
;
        nFaces          0;
        startFace       264139;
    }
    motorBike_frame:016-shadow%13
    {
        type            wall;
        inGroups        List<word> 
2
(
motorBikeGroup
wall
)
;
        nFaces          0;
        startFace       264139;
    }
    motorBike_rear-susp:014%14
    {
        type            wall;
        inGroups        List<word> 
2
(
motorBikeGroup
wall
)
;
        nFaces          9;
        startFace       264139;
    }
    motorBike_rear-susp:014-shadow%15
    {
        type            wall;
        inGroups        List<word> 
2
(
motorBikeGroup
wall
)
;
        nFaces          5;
        startFace       264148;
    }
    motorBike_frame:016%16
    {
        type            wall;
        inGroups        List<word> 
2
(
motorBikeGroup
wall
)
;
        nFaces          0;
        startFace       264153;
    }
    motorBike_rr-wh-rim:005-shadow%17
    {
        type            wall;
        inGroups        List<word> 
2
(
motorBikeGroup
wall
)
;
        nFaces          0;
        startFace       264153;
    }
    motorBike_rr-wh-chain-hub:022%22
    {
        type            wall;
        inGroups        List<word> 
2
(
motorBikeGroup
wall
)
;
        nFaces          115;
        startFace       264153;
    }
    motorBike_rearseat%24
    {
        type            wall;
        inGroups        List<word> 
2
(
motorBikeGroup
wall
)
;
        nFaces          258;
        startFace       264268;
    }
    motorBike_frt-fairing%25
    {
        type            wall;
        inGroups        List<word> 
2
(
motorBikeGroup
wall
)
;
        nFaces          0;
        startFace       264526;
    }
    motorBike_windshield%26
    {
        type            wall;
        inGroups        List<word> 
2
(
motorBikeGroup
wall
)
;
        nFaces          0;
        startFace       264526;
    }
    motorBike_headlights%27
    {
        type            wall;
        inGroups        List<word> 
2
(
motorBikeGroup
wall
)
;
        nFaces          0;
        startFace       264526;
    }
    motorBike_driversseat%28
    {
        type            wall;
        inGroups        List<word> 
2
(
motorBikeGroup
wall
)
;
        nFaces          112;
        startFace       264526;
    }
    motorBike_rear-body%29
    {
        type            wall;
        inGroups        List<word> 
2
(
motorBikeGroup
wall
)
;
        nFaces          1000;
        startFace       264638;
    }
    motorBike_fuel-tank%30
    {
        type            wall;
        inGroups        List<word> 
2
(
motorBikeGroup
wall
)
;
        nFaces          0;
        startFace       265638;
    }
    motorBike_exhaust%31
    {
        type            wall;
        inGroups        List<word> 
2
(
motorBikeGroup
wall
)
;
        nFaces          0;
        startFace       265638;
    }
    motorBike_rr-wh-rim%32
    {
        type            wall;
        inGroups        List<word> 
2
(
motorBikeGroup
wall
)
;
        nFaces          929;
        startFace       265638;
    }
    motorBike_fr-mud-guard%33
    {
        type            wall;
        inGroups        List<word> 
2
(
motorBikeGroup
wall
)
;
        nFaces          0;
        startFace       266567;
    }
    motorBike_fr-wh-rim%34
    {
        type            wall;
        inGroups        List<word> 
2
(
motorBikeGroup
wall
)
;
        nFaces          0;
        startFace       266567;
    }
    motorBike_fr-wh-brake-disk%35
    {
        type            wall;
        inGroups        List<word> 
2
(
motorBikeGroup
wall
)
;
        nFaces          0;
        startFace       266567;
    }
    motorBike_fr-brake-caliper%36
    {
        type            wall;
        inGroups        List<word> 
2
(
motorBikeGroup
wall
)
;
        nFaces          0;
        startFace       266567;
    }
    motorBike_fr-wh-tyre%37
    {
        type            wall;
        inGroups        List<word> 
2
(
motorBikeGroup
wall
)
;
        nFaces          0;
        startFace       266567;
    }
    motorBike_hbars%38
    {
        type            wall;
        inGroups        List<word> 
2
(
motorBikeGroup
wall
)
;
        nFaces          0;
        startFace       266567;
    }
    motorBike_fr-forks%39
    {
        type            wall;
        inGroups        List<word> 
2
(
motorBikeGroup
wall
)
;
        nFaces          0;
        startFace       266567;
    }
    motorBike_chain%40
    {
        type            wall;
        inGroups        List<word> 
2
(
motorBikeGroup
wall
)
;
        nFaces          278;
        startFace       266567;
    }
    motorBike_rr-wh-tyre%41
    {
        type            wall;
        inGroups        List<word> 
2
(
motorBikeGroup
wall
)
;
        nFaces          1106;
        startFace       266845;
    }
    motorBike_square-dial%42
    {
        type            wall;
        inGroups        List<word> 
2
(
motorBikeGroup
wall
)
;
        nFaces          0;
        startFace       267951;
    }
    motorBike_round-dial%43
    {
        type            wall;
        inGroups        List<word> 
2
(
motorBikeGroup
wall
)
;
        nFaces          0;
        startFace       267951;
    }
    motorBike_dial-holder%44
    {
        type            wall;
        inGroups        List<word> 
2
(
motorBikeGroup
wall
)
;
        nFaces          0;
        startFace       267951;
    }
    motorBike_rear-susp%45
    {
        type            wall;
        inGroups        List<word> 
2
(
motorBikeGroup
wall
)
;
        nFaces          477;
        startFace       267951;
    }
    motorBike_rear-brake-lights%46
    {
        type            wall;
        inGroups        List<word> 
2
(
motorBikeGroup
wall
)
;
        nFaces          38;
        startFace       268428;
    }
    motorBike_rear-light-bracket%47
    {
        type            wall;
        inGroups        List<word> 
2
(
motorBikeGroup
wall
)
;
        nFaces          107;
        startFace       268466;
    }
    motorBike_frame%48
    {
        type            wall;
        inGroups        List<word> 
2
(
motorBikeGroup
wall
)
;
        nFaces          6;
        startFace       268573;
    }
    motorBike_rear-mud-guard%49
    {
        type            wall;
        inGroups        List<word> 
2
(
motorBikeGroup
wall
)
;
        nFaces          414;
        startFace       268579;
    }
    motorBike_rear-susp-spring-damp%50
    {
        type            wall;
        inGroups        List<word> 
2
(
motorBikeGroup
wall
)
;
        nFaces          0;
        startFace       268993;
    }
    motorBike_fairing-inner-plate%51
    {
        type            wall;
        inGroups        List<word> 
2
(
motorBikeGroup
wall
)
;
        nFaces          0;
        startFace       268993;
    }
    motorBike_clutch-housing%52
    {
        type            wall;
        inGroups        List<word> 
2
(
motorBikeGroup
wall
)
;
        nFaces          0;
        startFace       268993;
    }
    motorBike_radiator%53
    {
        type            wall;
        inGroups        List<word> 
2
(
motorBikeGroup
wall
)
;
        nFaces          0;
        startFace       268993;
    }
    motorBike_water-pipe%54
    {
        type            wall;
        inGroups        List<word> 
2
(
motorBikeGroup
wall
)
;
        nFaces          0;
        startFace       268993;
    }
    motorBike_water-pump%55
    {
        type            wall;
        inGroups        List<word> 
2
(
motorBikeGroup
wall
)
;
        nFaces          0;
        startFace       268993;
    }
    motorBike_engine%56
    {
        type            wall;
        inGroups        List<word> 
2
(
motorBikeGroup
wall
)
;
        nFaces          0;
        startFace       268993;
    }
    motorBike_rear-shock-link%57
    {
        type            wall;
        inGroups        List<word> 
2
(
motorBikeGroup
wall
)
;
        nFaces          0;
        startFace       268993;
    }
    motorBike_rear-brake-fluid-pot-bracket%58
    {
        type            wall;
        inGroups        List<word> 
2
(
motorBikeGroup
wall
)
;
        nFaces          0;
        startFace       268993;
    }
    motorBike_rear-brake-fluid-pot%59
    {
        type            wall;
        inGroups        List<word> 
2
(
motorBikeGroup
wall
)
;
        nFaces          0;
        startFace       268993;
    }
    motorBike_footpeg%60
    {
        type            wall;
        inGroups        List<word> 
2
(
motorBikeGroup
wall
)
;
        nFaces          0;
        startFace       268993;
    }
    motorBike_rr-wh-chain-hub%61
    {
        type            wall;
        inGroups        List<word> 
2
(
motorBikeGroup
wall
)
;
        nFaces          124;
        startFace       268993;
    }
    motorBike_rear-brake-caliper%62
    {
        type            wall;
        inGroups        List<word> 
2
(
motorBikeGroup
wall
)
;
        nFaces          0;
        startFace       269117;
    }
    motorBike_rider-helmet%65
    {
        type            wall;
        inGroups        List<word> 
2
(
motorBikeGroup
wall
)
;
        nFaces          0;
        startFace       269117;
    }
    motorBike_rider-visor%66
    {
        type            wall;
        inGroups        List<word> 
2
(
motorBikeGroup
wall
)
;
        nFaces          0;
        startFace       269117;
    }
    motorBike_rider-boots%67
    {
        type            wall;
        inGroups        List<word> 
2
(
motorBikeGroup
wall
)
;
        nFaces          114;
        startFace       269117;
    }
    motorBike_rider-gloves%68
    {
        type            wall;
        inGroups        List<word> 
2
(
motorBikeGroup
wall
)
;
        nFaces          0;
        startFace       269231;
    }
    motorBike_rider-body%69
    {
        type            wall;
        inGroups        List<word> 
2
(
motorBikeGroup
wall
)
;
        nFaces          248;
        startFace       269231;
    }
    motorBike_frame:0%70
    {
        type            wall;
        inGroups        List<word> 
2
(
motorBikeGroup
wall
)
;
        nFaces          0;
        startFace       269479;
    }
    motorBike_frt-fairing:001-shadow%74
    {
        type            wall;
        inGroups        List<word> 
2
(
motorBikeGroup
wall
)
;
        nFaces          0;
        startFace       269479;
    }
    motorBike_windshield-shadow%75
    {
        type            wall;
        inGroups        List<word> 
2
(
motorBikeGroup
wall
)
;
        nFaces          0;
        startFace       269479;
    }
    motorBike_fr-mud-guard-shadow%81
    {
        type            wall;
        inGroups        List<word> 
2
(
motorBikeGroup
wall
)
;
        nFaces          0;
        startFace       269479;
    }
    motorBike_fr-wh-brake-disk-shadow%83
    {
        type            wall;
        inGroups        List<word> 
2
(
motorBikeGroup
wall
)
;
        nFaces          0;
        startFace       269479;
    }
    motorBike_rear-mud-guard-shadow%84
    {
        type            wall;
        inGroups        List<word> 
2
(
motorBikeGroup
wall
)
;
        nFaces          258;
        startFace       269479;
    }
    motorBike_rear-susp-spring-damp-shadow%85
    {
        type            wall;
        inGroups        List<word> 
2
(
motorBikeGroup
wall
)
;
        nFaces          0;
        startFace       269737;
    }
    motorBike_radiator-shadow%86
    {
        type            wall;
        inGroups        List<word> 
2
(
motorBikeGroup
wall
)
;
        nFaces          0;
        startFace       269737;
    }
    motorBike_rear-shock-link-shadow%87
    {
        type            wall;
        inGroups        List<word> 
2
(
motorBikeGroup
wall
)
;
        nFaces          0;
        startFace       269737;
    }
    motorBike_rear-brake-fluid-pot-bracket-shadow%88
    {
        type            wall;
        inGroups        List<word> 
2
(
motorBikeGroup
wall
)
;
        nFaces          0;
        startFace       269737;
    }
    motorBike_rr-wh-chain-hub-shadow%89
    {
        type            wall;
        inGroups        List<word> 
2
(
motorBikeGroup
wall
)
;
        nFaces          69;
        startFace       269737;
    }
    procBoundary1to0
    {
        type            processor;
        inGroups        List<word> 1(processor);
        nFaces          1739;
        startFace       269806;
        matchTolerance  0.0001;
        myProcNo        1;
        neighbProcNo    0;
    }
    procBoundary1to2
    {
        type            processor;
        inGroups        List<word> 1(processor);
        nFaces          134;
        startFace       271545;
        matchTolerance  0.0001;
        myProcNo        1;
        neighbProcNo    2;
    }
    procBoundary1to3
    {
        type            processor;
        inGroups        List<word> 1(processor);
        nFaces          6914;
        startFace       271679;
        matchTolerance  0.0001;
        myProcNo        1;
        neighbProcNo    3;
    }
)

// ************************************************************************* //
