/*--------------------------------*- C++ -*----------------------------------*\
  =========                 |
  \\      /  F ield         | OpenFOAM: The Open Source CFD Toolbox
   \\    /   O peration     | Website:  https://openfoam.org
    \\  /    A nd           | Version:  9
     \\/     M anipulation  |
\*---------------------------------------------------------------------------*/
FoamFile
{
    format      ascii;
    class       polyBoundaryMesh;
    location    "constant/polyMesh";
    object      boundary;
}
// * * * * * * * * * * * * * * * * * * * * * * * * * * * * * * * * * * * * * //

7
(
    leftWall
    {
        type            wall;
        inGroups        List<word> 1(wall);
        nFaces          44;
        startFace       3781;
    }
    rightWall
    {
        type            wall;
        inGroups        List<word> 1(wall);
        nFaces          0;
        startFace       3825;
    }
    lowerWall
    {
        type            wall;
        inGroups        List<word> 1(wall);
        nFaces          44;
        startFace       3825;
    }
    atmosphere
    {
        type            patch;
        nFaces          0;
        startFace       3869;
    }
    defaultFaces
    {
        type            empty;
        inGroups        List<word> 1(empty);
        nFaces          3870;
        startFace       3869;
    }
    procBoundary0to1
    {
        type            processor;
        inGroups        List<word> 1(processor);
        nFaces          44;
        startFace       7739;
        matchTolerance  0.0001;
        myProcNo        0;
        neighbProcNo    1;
    }
    procBoundary0to2
    {
        type            processor;
        inGroups        List<word> 1(processor);
        nFaces          46;
        startFace       7783;
        matchTolerance  0.0001;
        myProcNo        0;
        neighbProcNo    2;
    }
)

// ************************************************************************* //
