/*--------------------------------*- C++ -*----------------------------------*\
  =========                 |
  \\      /  F ield         | OpenFOAM: The Open Source CFD Toolbox
   \\    /   O peration     | Website:  https://openfoam.org
    \\  /    A nd           | Version:  9
     \\/     M anipulation  |
\*---------------------------------------------------------------------------*/
FoamFile
{
    format      binary;
    class       polyBoundaryMesh;
    location    "constant/polyMesh";
    object      boundary;
}
// * * * * * * * * * * * * * * * * * * * * * * * * * * * * * * * * * * * * * //

74
(
    frontAndBack
    {
        type            patch;
        nFaces          54;
        startFace       257556;
    }
    inlet
    {
        type            patch;
        nFaces          36;
        startFace       257610;
    }
    outlet
    {
        type            patch;
        nFaces          0;
        startFace       257646;
    }
    lowerWall
    {
        type            wall;
        inGroups        List<word> 1(wall);
        nFaces          812;
        startFace       257646;
    }
    upperWall
    {
        type            patch;
        nFaces          24;
        startFace       258458;
    }
    motorBike_frt-fairing:001%1
    {
        type            wall;
        inGroups        List<word> 
2
(
motorBikeGroup
wall
)
;
        nFaces          2646;
        startFace       258482;
    }
    motorBike_windshield:002%2
    {
        type            wall;
        inGroups        List<word> 
2
(
motorBikeGroup
wall
)
;
        nFaces          28;
        startFace       261128;
    }
    motorBike_rr-wh-rim:005%5
    {
        type            wall;
        inGroups        List<word> 
2
(
motorBikeGroup
wall
)
;
        nFaces          0;
        startFace       261156;
    }
    motorBike_rr-wh-rim:010%10
    {
        type            wall;
        inGroups        List<word> 
2
(
motorBikeGroup
wall
)
;
        nFaces          0;
        startFace       261156;
    }
    motorBike_fr-wh-rim:011%11
    {
        type            wall;
        inGroups        List<word> 
2
(
motorBikeGroup
wall
)
;
        nFaces          256;
        startFace       261156;
    }
    motorBike_fr-wh-brake-disk:012%12
    {
        type            wall;
        inGroups        List<word> 
2
(
motorBikeGroup
wall
)
;
        nFaces          25;
        startFace       261412;
    }
    motorBike_frame:016-shadow%13
    {
        type            wall;
        inGroups        List<word> 
2
(
motorBikeGroup
wall
)
;
        nFaces          52;
        startFace       261437;
    }
    motorBike_rear-susp:014%14
    {
        type            wall;
        inGroups        List<word> 
2
(
motorBikeGroup
wall
)
;
        nFaces          386;
        startFace       261489;
    }
    motorBike_rear-susp:014-shadow%15
    {
        type            wall;
        inGroups        List<word> 
2
(
motorBikeGroup
wall
)
;
        nFaces          212;
        startFace       261875;
    }
    motorBike_frame:016%16
    {
        type            wall;
        inGroups        List<word> 
2
(
motorBikeGroup
wall
)
;
        nFaces          34;
        startFace       262087;
    }
    motorBike_rr-wh-rim:005-shadow%17
    {
        type            wall;
        inGroups        List<word> 
2
(
motorBikeGroup
wall
)
;
        nFaces          0;
        startFace       262121;
    }
    motorBike_rr-wh-chain-hub:022%22
    {
        type            wall;
        inGroups        List<word> 
2
(
motorBikeGroup
wall
)
;
        nFaces          0;
        startFace       262121;
    }
    motorBike_rearseat%24
    {
        type            wall;
        inGroups        List<word> 
2
(
motorBikeGroup
wall
)
;
        nFaces          0;
        startFace       262121;
    }
    motorBike_frt-fairing%25
    {
        type            wall;
        inGroups        List<word> 
2
(
motorBikeGroup
wall
)
;
        nFaces          319;
        startFace       262121;
    }
    motorBike_windshield%26
    {
        type            wall;
        inGroups        List<word> 
2
(
motorBikeGroup
wall
)
;
        nFaces          211;
        startFace       262440;
    }
    motorBike_headlights%27
    {
        type            wall;
        inGroups        List<word> 
2
(
motorBikeGroup
wall
)
;
        nFaces          77;
        startFace       262651;
    }
    motorBike_driversseat%28
    {
        type            wall;
        inGroups        List<word> 
2
(
motorBikeGroup
wall
)
;
        nFaces          93;
        startFace       262728;
    }
    motorBike_rear-body%29
    {
        type            wall;
        inGroups        List<word> 
2
(
motorBikeGroup
wall
)
;
        nFaces          123;
        startFace       262821;
    }
    motorBike_fuel-tank%30
    {
        type            wall;
        inGroups        List<word> 
2
(
motorBikeGroup
wall
)
;
        nFaces          450;
        startFace       262944;
    }
    motorBike_exhaust%31
    {
        type            wall;
        inGroups        List<word> 
2
(
motorBikeGroup
wall
)
;
        nFaces          489;
        startFace       263394;
    }
    motorBike_rr-wh-rim%32
    {
        type            wall;
        inGroups        List<word> 
2
(
motorBikeGroup
wall
)
;
        nFaces          0;
        startFace       263883;
    }
    motorBike_fr-mud-guard%33
    {
        type            wall;
        inGroups        List<word> 
2
(
motorBikeGroup
wall
)
;
        nFaces          293;
        startFace       263883;
    }
    motorBike_fr-wh-rim%34
    {
        type            wall;
        inGroups        List<word> 
2
(
motorBikeGroup
wall
)
;
        nFaces          256;
        startFace       264176;
    }
    motorBike_fr-wh-brake-disk%35
    {
        type            wall;
        inGroups        List<word> 
2
(
motorBikeGroup
wall
)
;
        nFaces          226;
        startFace       264432;
    }
    motorBike_fr-brake-caliper%36
    {
        type            wall;
        inGroups        List<word> 
2
(
motorBikeGroup
wall
)
;
        nFaces          81;
        startFace       264658;
    }
    motorBike_fr-wh-tyre%37
    {
        type            wall;
        inGroups        List<word> 
2
(
motorBikeGroup
wall
)
;
        nFaces          526;
        startFace       264739;
    }
    motorBike_hbars%38
    {
        type            wall;
        inGroups        List<word> 
2
(
motorBikeGroup
wall
)
;
        nFaces          271;
        startFace       265265;
    }
    motorBike_fr-forks%39
    {
        type            wall;
        inGroups        List<word> 
2
(
motorBikeGroup
wall
)
;
        nFaces          554;
        startFace       265536;
    }
    motorBike_chain%40
    {
        type            wall;
        inGroups        List<word> 
2
(
motorBikeGroup
wall
)
;
        nFaces          181;
        startFace       266090;
    }
    motorBike_rr-wh-tyre%41
    {
        type            wall;
        inGroups        List<word> 
2
(
motorBikeGroup
wall
)
;
        nFaces          0;
        startFace       266271;
    }
    motorBike_square-dial%42
    {
        type            wall;
        inGroups        List<word> 
2
(
motorBikeGroup
wall
)
;
        nFaces          6;
        startFace       266271;
    }
    motorBike_round-dial%43
    {
        type            wall;
        inGroups        List<word> 
2
(
motorBikeGroup
wall
)
;
        nFaces          0;
        startFace       266277;
    }
    motorBike_dial-holder%44
    {
        type            wall;
        inGroups        List<word> 
2
(
motorBikeGroup
wall
)
;
        nFaces          43;
        startFace       266277;
    }
    motorBike_rear-susp%45
    {
        type            wall;
        inGroups        List<word> 
2
(
motorBikeGroup
wall
)
;
        nFaces          397;
        startFace       266320;
    }
    motorBike_rear-brake-lights%46
    {
        type            wall;
        inGroups        List<word> 
2
(
motorBikeGroup
wall
)
;
        nFaces          0;
        startFace       266717;
    }
    motorBike_rear-light-bracket%47
    {
        type            wall;
        inGroups        List<word> 
2
(
motorBikeGroup
wall
)
;
        nFaces          0;
        startFace       266717;
    }
    motorBike_frame%48
    {
        type            wall;
        inGroups        List<word> 
2
(
motorBikeGroup
wall
)
;
        nFaces          1004;
        startFace       266717;
    }
    motorBike_rear-mud-guard%49
    {
        type            wall;
        inGroups        List<word> 
2
(
motorBikeGroup
wall
)
;
        nFaces          0;
        startFace       267721;
    }
    motorBike_rear-susp-spring-damp%50
    {
        type            wall;
        inGroups        List<word> 
2
(
motorBikeGroup
wall
)
;
        nFaces          35;
        startFace       267721;
    }
    motorBike_fairing-inner-plate%51
    {
        type            wall;
        inGroups        List<word> 
2
(
motorBikeGroup
wall
)
;
        nFaces          230;
        startFace       267756;
    }
    motorBike_clutch-housing%52
    {
        type            wall;
        inGroups        List<word> 
2
(
motorBikeGroup
wall
)
;
        nFaces          446;
        startFace       267986;
    }
    motorBike_radiator%53
    {
        type            wall;
        inGroups        List<word> 
2
(
motorBikeGroup
wall
)
;
        nFaces          0;
        startFace       268432;
    }
    motorBike_water-pipe%54
    {
        type            wall;
        inGroups        List<word> 
2
(
motorBikeGroup
wall
)
;
        nFaces          0;
        startFace       268432;
    }
    motorBike_water-pump%55
    {
        type            wall;
        inGroups        List<word> 
2
(
motorBikeGroup
wall
)
;
        nFaces          0;
        startFace       268432;
    }
    motorBike_engine%56
    {
        type            wall;
        inGroups        List<word> 
2
(
motorBikeGroup
wall
)
;
        nFaces          1149;
        startFace       268432;
    }
    motorBike_rear-shock-link%57
    {
        type            wall;
        inGroups        List<word> 
2
(
motorBikeGroup
wall
)
;
        nFaces          9;
        startFace       269581;
    }
    motorBike_rear-brake-fluid-pot-bracket%58
    {
        type            wall;
        inGroups        List<word> 
2
(
motorBikeGroup
wall
)
;
        nFaces          0;
        startFace       269590;
    }
    motorBike_rear-brake-fluid-pot%59
    {
        type            wall;
        inGroups        List<word> 
2
(
motorBikeGroup
wall
)
;
        nFaces          0;
        startFace       269590;
    }
    motorBike_footpeg%60
    {
        type            wall;
        inGroups        List<word> 
2
(
motorBikeGroup
wall
)
;
        nFaces          54;
        startFace       269590;
    }
    motorBike_rr-wh-chain-hub%61
    {
        type            wall;
        inGroups        List<word> 
2
(
motorBikeGroup
wall
)
;
        nFaces          0;
        startFace       269644;
    }
    motorBike_rear-brake-caliper%62
    {
        type            wall;
        inGroups        List<word> 
2
(
motorBikeGroup
wall
)
;
        nFaces          0;
        startFace       269644;
    }
    motorBike_rider-helmet%65
    {
        type            wall;
        inGroups        List<word> 
2
(
motorBikeGroup
wall
)
;
        nFaces          411;
        startFace       269644;
    }
    motorBike_rider-visor%66
    {
        type            wall;
        inGroups        List<word> 
2
(
motorBikeGroup
wall
)
;
        nFaces          90;
        startFace       270055;
    }
    motorBike_rider-boots%67
    {
        type            wall;
        inGroups        List<word> 
2
(
motorBikeGroup
wall
)
;
        nFaces          392;
        startFace       270145;
    }
    motorBike_rider-gloves%68
    {
        type            wall;
        inGroups        List<word> 
2
(
motorBikeGroup
wall
)
;
        nFaces          163;
        startFace       270537;
    }
    motorBike_rider-body%69
    {
        type            wall;
        inGroups        List<word> 
2
(
motorBikeGroup
wall
)
;
        nFaces          2063;
        startFace       270700;
    }
    motorBike_frame:0%70
    {
        type            wall;
        inGroups        List<word> 
2
(
motorBikeGroup
wall
)
;
        nFaces          37;
        startFace       272763;
    }
    motorBike_frt-fairing:001-shadow%74
    {
        type            wall;
        inGroups        List<word> 
2
(
motorBikeGroup
wall
)
;
        nFaces          1610;
        startFace       272800;
    }
    motorBike_windshield-shadow%75
    {
        type            wall;
        inGroups        List<word> 
2
(
motorBikeGroup
wall
)
;
        nFaces          127;
        startFace       274410;
    }
    motorBike_fr-mud-guard-shadow%81
    {
        type            wall;
        inGroups        List<word> 
2
(
motorBikeGroup
wall
)
;
        nFaces          189;
        startFace       274537;
    }
    motorBike_fr-wh-brake-disk-shadow%83
    {
        type            wall;
        inGroups        List<word> 
2
(
motorBikeGroup
wall
)
;
        nFaces          92;
        startFace       274726;
    }
    motorBike_rear-mud-guard-shadow%84
    {
        type            wall;
        inGroups        List<word> 
2
(
motorBikeGroup
wall
)
;
        nFaces          0;
        startFace       274818;
    }
    motorBike_rear-susp-spring-damp-shadow%85
    {
        type            wall;
        inGroups        List<word> 
2
(
motorBikeGroup
wall
)
;
        nFaces          18;
        startFace       274818;
    }
    motorBike_radiator-shadow%86
    {
        type            wall;
        inGroups        List<word> 
2
(
motorBikeGroup
wall
)
;
        nFaces          0;
        startFace       274836;
    }
    motorBike_rear-shock-link-shadow%87
    {
        type            wall;
        inGroups        List<word> 
2
(
motorBikeGroup
wall
)
;
        nFaces          4;
        startFace       274836;
    }
    motorBike_rear-brake-fluid-pot-bracket-shadow%88
    {
        type            wall;
        inGroups        List<word> 
2
(
motorBikeGroup
wall
)
;
        nFaces          0;
        startFace       274840;
    }
    motorBike_rr-wh-chain-hub-shadow%89
    {
        type            wall;
        inGroups        List<word> 
2
(
motorBikeGroup
wall
)
;
        nFaces          0;
        startFace       274840;
    }
    procBoundary0to1
    {
        type            processor;
        inGroups        List<word> 1(processor);
        nFaces          1739;
        startFace       274840;
        matchTolerance  0.0001;
        myProcNo        0;
        neighbProcNo    1;
    }
    procBoundary0to2
    {
        type            processor;
        inGroups        List<word> 1(processor);
        nFaces          5550;
        startFace       276579;
        matchTolerance  0.0001;
        myProcNo        0;
        neighbProcNo    2;
    }
)

// ************************************************************************* //
