/*--------------------------------*- C++ -*----------------------------------*\
  =========                 |
  \\      /  F ield         | OpenFOAM: The Open Source CFD Toolbox
   \\    /   O peration     | Website:  https://openfoam.org
    \\  /    A nd           | Version:  8
     \\/     M anipulation  |
\*---------------------------------------------------------------------------*/
FoamFile
{
    version     2.0;
    format      ascii;
    class       polyBoundaryMesh;
    location    "constant/polyMesh";
    object      boundary;
}
// * * * * * * * * * * * * * * * * * * * * * * * * * * * * * * * * * * * * * //

8
(
    frontAndBack
    {
        type            empty;
        physicalType    patch;
        inGroups        List<word> 1(empty);
        nFaces          79672;
        startFace       59398;
    }
    symmetry
    {
        type            symmetry;
        physicalType    patch;
        inGroups        List<word> 1(symmetry);
        nFaces          66;
        startFace       139070;
    }
    inlet
    {
        type            patch;
        physicalType    patch;
        nFaces          60;
        startFace       139136;
    }
    outlet
    {
        type            patch;
        physicalType    patch;
        nFaces          0;
        startFace       139196;
    }
    walls
    {
        type            patch;
        physicalType    patch;
        nFaces          119;
        startFace       139196;
    }
    procBoundary2to0
    {
        type            processor;
        inGroups        List<word> 1(processor);
        nFaces          230;
        startFace       139315;
        matchTolerance  0.0001;
        myProcNo        2;
        neighbProcNo    0;
    }
    procBoundary2to1
    {
        type            processor;
        inGroups        List<word> 1(processor);
        nFaces          4;
        startFace       139545;
        matchTolerance  0.0001;
        myProcNo        2;
        neighbProcNo    1;
    }
    procBoundary2to3
    {
        type            processor;
        inGroups        List<word> 1(processor);
        nFaces          233;
        startFace       139549;
        matchTolerance  0.0001;
        myProcNo        2;
        neighbProcNo    3;
    }
)

// ************************************************************************* //
