/*--------------------------------*- C++ -*----------------------------------*\
  =========                 |
  \\      /  F ield         | OpenFOAM: The Open Source CFD Toolbox
   \\    /   O peration     | Website:  https://openfoam.org
    \\  /    A nd           | Version:  9
     \\/     M anipulation  |
\*---------------------------------------------------------------------------*/
FoamFile
{
    format      ascii;
    class       polyBoundaryMesh;
    location    "constant/polyMesh";
    object      boundary;
}
// * * * * * * * * * * * * * * * * * * * * * * * * * * * * * * * * * * * * * //

6
(
    frontAndBack
    {
        type            empty;
        physicalType    patch;
        inGroups        List<word> 1(empty);
        nFaces          41724;
        startFace       30885;
    }
    symmetry
    {
        type            symmetry;
        physicalType    patch;
        inGroups        List<word> 1(symmetry);
        nFaces          40;
        startFace       72609;
    }
    inlet
    {
        type            patch;
        physicalType    patch;
        nFaces          25;
        startFace       72649;
    }
    outlet
    {
        type            patch;
        physicalType    patch;
        nFaces          0;
        startFace       72674;
    }
    wall
    {
        type            patch;
        physicalType    patch;
        nFaces          539;
        startFace       72674;
    }
    procBoundary0to1
    {
        type            processor;
        inGroups        List<word> 1(processor);
        nFaces          212;
        startFace       73213;
        matchTolerance  0.0001;
        myProcNo        0;
        neighbProcNo    1;
    }
)

// ************************************************************************* //
