/*--------------------------------*- C++ -*----------------------------------*\
  =========                 |
  \\      /  F ield         | OpenFOAM: The Open Source CFD Toolbox
   \\    /   O peration     | Website:  https://openfoam.org
    \\  /    A nd           | Version:  9
     \\/     M anipulation  |
\*---------------------------------------------------------------------------*/
FoamFile
{
    format      binary;
    class       polyBoundaryMesh;
    location    "constant/polyMesh";
    object      boundary;
}
// * * * * * * * * * * * * * * * * * * * * * * * * * * * * * * * * * * * * * //

75
(
    frontAndBack
    {
        type            patch;
        nFaces          54;
        startFace       256645;
    }
    inlet
    {
        type            patch;
        nFaces          36;
        startFace       256699;
    }
    outlet
    {
        type            patch;
        nFaces          0;
        startFace       256735;
    }
    lowerWall
    {
        type            wall;
        inGroups        List<word> 1(wall);
        nFaces          829;
        startFace       256735;
    }
    upperWall
    {
        type            patch;
        nFaces          24;
        startFace       257564;
    }
    motorBike_frt-fairing:001%1
    {
        type            wall;
        inGroups        List<word> 
2
(
motorBikeGroup
wall
)
;
        nFaces          2739;
        startFace       257588;
    }
    motorBike_windshield:002%2
    {
        type            wall;
        inGroups        List<word> 
2
(
motorBikeGroup
wall
)
;
        nFaces          22;
        startFace       260327;
    }
    motorBike_rr-wh-rim:005%5
    {
        type            wall;
        inGroups        List<word> 
2
(
motorBikeGroup
wall
)
;
        nFaces          0;
        startFace       260349;
    }
    motorBike_rr-wh-rim:010%10
    {
        type            wall;
        inGroups        List<word> 
2
(
motorBikeGroup
wall
)
;
        nFaces          0;
        startFace       260349;
    }
    motorBike_fr-wh-rim:011%11
    {
        type            wall;
        inGroups        List<word> 
2
(
motorBikeGroup
wall
)
;
        nFaces          249;
        startFace       260349;
    }
    motorBike_fr-wh-brake-disk:012%12
    {
        type            wall;
        inGroups        List<word> 
2
(
motorBikeGroup
wall
)
;
        nFaces          21;
        startFace       260598;
    }
    motorBike_frame:016-shadow%13
    {
        type            wall;
        inGroups        List<word> 
2
(
motorBikeGroup
wall
)
;
        nFaces          51;
        startFace       260619;
    }
    motorBike_rear-susp:014%14
    {
        type            wall;
        inGroups        List<word> 
2
(
motorBikeGroup
wall
)
;
        nFaces          411;
        startFace       260670;
    }
    motorBike_rear-susp:014-shadow%15
    {
        type            wall;
        inGroups        List<word> 
2
(
motorBikeGroup
wall
)
;
        nFaces          235;
        startFace       261081;
    }
    motorBike_frame:016%16
    {
        type            wall;
        inGroups        List<word> 
2
(
motorBikeGroup
wall
)
;
        nFaces          28;
        startFace       261316;
    }
    motorBike_rr-wh-rim:005-shadow%17
    {
        type            wall;
        inGroups        List<word> 
2
(
motorBikeGroup
wall
)
;
        nFaces          0;
        startFace       261344;
    }
    motorBike_rr-wh-chain-hub:022%22
    {
        type            wall;
        inGroups        List<word> 
2
(
motorBikeGroup
wall
)
;
        nFaces          0;
        startFace       261344;
    }
    motorBike_rearseat%24
    {
        type            wall;
        inGroups        List<word> 
2
(
motorBikeGroup
wall
)
;
        nFaces          0;
        startFace       261344;
    }
    motorBike_frt-fairing%25
    {
        type            wall;
        inGroups        List<word> 
2
(
motorBikeGroup
wall
)
;
        nFaces          300;
        startFace       261344;
    }
    motorBike_windshield%26
    {
        type            wall;
        inGroups        List<word> 
2
(
motorBikeGroup
wall
)
;
        nFaces          175;
        startFace       261644;
    }
    motorBike_headlights%27
    {
        type            wall;
        inGroups        List<word> 
2
(
motorBikeGroup
wall
)
;
        nFaces          77;
        startFace       261819;
    }
    motorBike_driversseat%28
    {
        type            wall;
        inGroups        List<word> 
2
(
motorBikeGroup
wall
)
;
        nFaces          74;
        startFace       261896;
    }
    motorBike_rear-body%29
    {
        type            wall;
        inGroups        List<word> 
2
(
motorBikeGroup
wall
)
;
        nFaces          125;
        startFace       261970;
    }
    motorBike_fuel-tank%30
    {
        type            wall;
        inGroups        List<word> 
2
(
motorBikeGroup
wall
)
;
        nFaces          431;
        startFace       262095;
    }
    motorBike_exhaust%31
    {
        type            wall;
        inGroups        List<word> 
2
(
motorBikeGroup
wall
)
;
        nFaces          780;
        startFace       262526;
    }
    motorBike_rr-wh-rim%32
    {
        type            wall;
        inGroups        List<word> 
2
(
motorBikeGroup
wall
)
;
        nFaces          0;
        startFace       263306;
    }
    motorBike_fr-mud-guard%33
    {
        type            wall;
        inGroups        List<word> 
2
(
motorBikeGroup
wall
)
;
        nFaces          321;
        startFace       263306;
    }
    motorBike_fr-wh-rim%34
    {
        type            wall;
        inGroups        List<word> 
2
(
motorBikeGroup
wall
)
;
        nFaces          320;
        startFace       263627;
    }
    motorBike_fr-wh-brake-disk%35
    {
        type            wall;
        inGroups        List<word> 
2
(
motorBikeGroup
wall
)
;
        nFaces          210;
        startFace       263947;
    }
    motorBike_fr-brake-caliper%36
    {
        type            wall;
        inGroups        List<word> 
2
(
motorBikeGroup
wall
)
;
        nFaces          78;
        startFace       264157;
    }
    motorBike_fr-wh-tyre%37
    {
        type            wall;
        inGroups        List<word> 
2
(
motorBikeGroup
wall
)
;
        nFaces          572;
        startFace       264235;
    }
    motorBike_hbars%38
    {
        type            wall;
        inGroups        List<word> 
2
(
motorBikeGroup
wall
)
;
        nFaces          251;
        startFace       264807;
    }
    motorBike_fr-forks%39
    {
        type            wall;
        inGroups        List<word> 
2
(
motorBikeGroup
wall
)
;
        nFaces          537;
        startFace       265058;
    }
    motorBike_chain%40
    {
        type            wall;
        inGroups        List<word> 
2
(
motorBikeGroup
wall
)
;
        nFaces          0;
        startFace       265595;
    }
    motorBike_rr-wh-tyre%41
    {
        type            wall;
        inGroups        List<word> 
2
(
motorBikeGroup
wall
)
;
        nFaces          0;
        startFace       265595;
    }
    motorBike_square-dial%42
    {
        type            wall;
        inGroups        List<word> 
2
(
motorBikeGroup
wall
)
;
        nFaces          0;
        startFace       265595;
    }
    motorBike_round-dial%43
    {
        type            wall;
        inGroups        List<word> 
2
(
motorBikeGroup
wall
)
;
        nFaces          15;
        startFace       265595;
    }
    motorBike_dial-holder%44
    {
        type            wall;
        inGroups        List<word> 
2
(
motorBikeGroup
wall
)
;
        nFaces          42;
        startFace       265610;
    }
    motorBike_rear-susp%45
    {
        type            wall;
        inGroups        List<word> 
2
(
motorBikeGroup
wall
)
;
        nFaces          420;
        startFace       265652;
    }
    motorBike_rear-brake-lights%46
    {
        type            wall;
        inGroups        List<word> 
2
(
motorBikeGroup
wall
)
;
        nFaces          0;
        startFace       266072;
    }
    motorBike_rear-light-bracket%47
    {
        type            wall;
        inGroups        List<word> 
2
(
motorBikeGroup
wall
)
;
        nFaces          0;
        startFace       266072;
    }
    motorBike_frame%48
    {
        type            wall;
        inGroups        List<word> 
2
(
motorBikeGroup
wall
)
;
        nFaces          998;
        startFace       266072;
    }
    motorBike_rear-mud-guard%49
    {
        type            wall;
        inGroups        List<word> 
2
(
motorBikeGroup
wall
)
;
        nFaces          0;
        startFace       267070;
    }
    motorBike_rear-susp-spring-damp%50
    {
        type            wall;
        inGroups        List<word> 
2
(
motorBikeGroup
wall
)
;
        nFaces          48;
        startFace       267070;
    }
    motorBike_fairing-inner-plate%51
    {
        type            wall;
        inGroups        List<word> 
2
(
motorBikeGroup
wall
)
;
        nFaces          209;
        startFace       267118;
    }
    motorBike_clutch-housing%52
    {
        type            wall;
        inGroups        List<word> 
2
(
motorBikeGroup
wall
)
;
        nFaces          479;
        startFace       267327;
    }
    motorBike_radiator%53
    {
        type            wall;
        inGroups        List<word> 
2
(
motorBikeGroup
wall
)
;
        nFaces          51;
        startFace       267806;
    }
    motorBike_water-pipe%54
    {
        type            wall;
        inGroups        List<word> 
2
(
motorBikeGroup
wall
)
;
        nFaces          94;
        startFace       267857;
    }
    motorBike_water-pump%55
    {
        type            wall;
        inGroups        List<word> 
2
(
motorBikeGroup
wall
)
;
        nFaces          72;
        startFace       267951;
    }
    motorBike_engine%56
    {
        type            wall;
        inGroups        List<word> 
2
(
motorBikeGroup
wall
)
;
        nFaces          1158;
        startFace       268023;
    }
    motorBike_rear-shock-link%57
    {
        type            wall;
        inGroups        List<word> 
2
(
motorBikeGroup
wall
)
;
        nFaces          13;
        startFace       269181;
    }
    motorBike_rear-brake-fluid-pot-bracket%58
    {
        type            wall;
        inGroups        List<word> 
2
(
motorBikeGroup
wall
)
;
        nFaces          36;
        startFace       269194;
    }
    motorBike_rear-brake-fluid-pot%59
    {
        type            wall;
        inGroups        List<word> 
2
(
motorBikeGroup
wall
)
;
        nFaces          53;
        startFace       269230;
    }
    motorBike_footpeg%60
    {
        type            wall;
        inGroups        List<word> 
2
(
motorBikeGroup
wall
)
;
        nFaces          35;
        startFace       269283;
    }
    motorBike_rr-wh-chain-hub%61
    {
        type            wall;
        inGroups        List<word> 
2
(
motorBikeGroup
wall
)
;
        nFaces          0;
        startFace       269318;
    }
    motorBike_rear-brake-caliper%62
    {
        type            wall;
        inGroups        List<word> 
2
(
motorBikeGroup
wall
)
;
        nFaces          0;
        startFace       269318;
    }
    motorBike_rider-helmet%65
    {
        type            wall;
        inGroups        List<word> 
2
(
motorBikeGroup
wall
)
;
        nFaces          348;
        startFace       269318;
    }
    motorBike_rider-visor%66
    {
        type            wall;
        inGroups        List<word> 
2
(
motorBikeGroup
wall
)
;
        nFaces          75;
        startFace       269666;
    }
    motorBike_rider-boots%67
    {
        type            wall;
        inGroups        List<word> 
2
(
motorBikeGroup
wall
)
;
        nFaces          412;
        startFace       269741;
    }
    motorBike_rider-gloves%68
    {
        type            wall;
        inGroups        List<word> 
2
(
motorBikeGroup
wall
)
;
        nFaces          146;
        startFace       270153;
    }
    motorBike_rider-body%69
    {
        type            wall;
        inGroups        List<word> 
2
(
motorBikeGroup
wall
)
;
        nFaces          2042;
        startFace       270299;
    }
    motorBike_frame:0%70
    {
        type            wall;
        inGroups        List<word> 
2
(
motorBikeGroup
wall
)
;
        nFaces          0;
        startFace       272341;
    }
    motorBike_frt-fairing:001-shadow%74
    {
        type            wall;
        inGroups        List<word> 
2
(
motorBikeGroup
wall
)
;
        nFaces          1597;
        startFace       272341;
    }
    motorBike_windshield-shadow%75
    {
        type            wall;
        inGroups        List<word> 
2
(
motorBikeGroup
wall
)
;
        nFaces          120;
        startFace       273938;
    }
    motorBike_fr-mud-guard-shadow%81
    {
        type            wall;
        inGroups        List<word> 
2
(
motorBikeGroup
wall
)
;
        nFaces          191;
        startFace       274058;
    }
    motorBike_fr-wh-brake-disk-shadow%83
    {
        type            wall;
        inGroups        List<word> 
2
(
motorBikeGroup
wall
)
;
        nFaces          105;
        startFace       274249;
    }
    motorBike_rear-mud-guard-shadow%84
    {
        type            wall;
        inGroups        List<word> 
2
(
motorBikeGroup
wall
)
;
        nFaces          0;
        startFace       274354;
    }
    motorBike_rear-susp-spring-damp-shadow%85
    {
        type            wall;
        inGroups        List<word> 
2
(
motorBikeGroup
wall
)
;
        nFaces          28;
        startFace       274354;
    }
    motorBike_radiator-shadow%86
    {
        type            wall;
        inGroups        List<word> 
2
(
motorBikeGroup
wall
)
;
        nFaces          21;
        startFace       274382;
    }
    motorBike_rear-shock-link-shadow%87
    {
        type            wall;
        inGroups        List<word> 
2
(
motorBikeGroup
wall
)
;
        nFaces          11;
        startFace       274403;
    }
    motorBike_rear-brake-fluid-pot-bracket-shadow%88
    {
        type            wall;
        inGroups        List<word> 
2
(
motorBikeGroup
wall
)
;
        nFaces          15;
        startFace       274414;
    }
    motorBike_rr-wh-chain-hub-shadow%89
    {
        type            wall;
        inGroups        List<word> 
2
(
motorBikeGroup
wall
)
;
        nFaces          0;
        startFace       274429;
    }
    procBoundary2to0
    {
        type            processor;
        inGroups        List<word> 1(processor);
        nFaces          5550;
        startFace       274429;
        matchTolerance  0.0001;
        myProcNo        2;
        neighbProcNo    0;
    }
    procBoundary2to1
    {
        type            processor;
        inGroups        List<word> 1(processor);
        nFaces          134;
        startFace       279979;
        matchTolerance  0.0001;
        myProcNo        2;
        neighbProcNo    1;
    }
    procBoundary2to3
    {
        type            processor;
        inGroups        List<word> 1(processor);
        nFaces          1663;
        startFace       280113;
        matchTolerance  0.0001;
        myProcNo        2;
        neighbProcNo    3;
    }
)

// ************************************************************************* //
