/*--------------------------------*- C++ -*----------------------------------*\
  =========                 |
  \\      /  F ield         | OpenFOAM: The Open Source CFD Toolbox
   \\    /   O peration     | Website:  https://openfoam.org
    \\  /    A nd           | Version:  9
     \\/     M anipulation  |
\*---------------------------------------------------------------------------*/
FoamFile
{
    format      ascii;
    class       polyBoundaryMesh;
    location    "constant/polyMesh";
    object      boundary;
}
// * * * * * * * * * * * * * * * * * * * * * * * * * * * * * * * * * * * * * //

6
(
    frontAndBack
    {
        type            empty;
        physicalType    patch;
        inGroups        List<word> 1(empty);
        nFaces          41724;
        startFace       30888;
    }
    symmetry
    {
        type            symmetry;
        physicalType    patch;
        inGroups        List<word> 1(symmetry);
        nFaces          160;
        startFace       72612;
    }
    inlet
    {
        type            patch;
        physicalType    patch;
        nFaces          0;
        startFace       72772;
    }
    outlet
    {
        type            patch;
        physicalType    patch;
        nFaces          25;
        startFace       72772;
    }
    wall
    {
        type            patch;
        physicalType    patch;
        nFaces          413;
        startFace       72797;
    }
    procBoundary1to0
    {
        type            processor;
        inGroups        List<word> 1(processor);
        nFaces          212;
        startFace       73210;
        matchTolerance  0.0001;
        myProcNo        1;
        neighbProcNo    0;
    }
)

// ************************************************************************* //
