/*--------------------------------*- C++ -*----------------------------------*\
  =========                 |
  \\      /  F ield         | OpenFOAM: The Open Source CFD Toolbox
   \\    /   O peration     | Website:  https://openfoam.org
    \\  /    A nd           | Version:  9
     \\/     M anipulation  |
\*---------------------------------------------------------------------------*/
FoamFile
{
    format      binary;
    class       polyBoundaryMesh;
    location    "constant/polyMesh";
    object      boundary;
}
// * * * * * * * * * * * * * * * * * * * * * * * * * * * * * * * * * * * * * //

74
(
    frontAndBack
    {
        type            patch;
        nFaces          126;
        startFace       262567;
    }
    inlet
    {
        type            patch;
        nFaces          0;
        startFace       262693;
    }
    outlet
    {
        type            patch;
        nFaces          36;
        startFace       262693;
    }
    lowerWall
    {
        type            wall;
        inGroups        List<word> 1(wall);
        nFaces          1827;
        startFace       262729;
    }
    upperWall
    {
        type            patch;
        nFaces          56;
        startFace       264556;
    }
    motorBike_frt-fairing:001%1
    {
        type            wall;
        inGroups        List<word> 
2
(
motorBikeGroup
wall
)
;
        nFaces          0;
        startFace       264612;
    }
    motorBike_windshield:002%2
    {
        type            wall;
        inGroups        List<word> 
2
(
motorBikeGroup
wall
)
;
        nFaces          0;
        startFace       264612;
    }
    motorBike_rr-wh-rim:005%5
    {
        type            wall;
        inGroups        List<word> 
2
(
motorBikeGroup
wall
)
;
        nFaces          131;
        startFace       264612;
    }
    motorBike_rr-wh-rim:010%10
    {
        type            wall;
        inGroups        List<word> 
2
(
motorBikeGroup
wall
)
;
        nFaces          230;
        startFace       264743;
    }
    motorBike_fr-wh-rim:011%11
    {
        type            wall;
        inGroups        List<word> 
2
(
motorBikeGroup
wall
)
;
        nFaces          0;
        startFace       264973;
    }
    motorBike_fr-wh-brake-disk:012%12
    {
        type            wall;
        inGroups        List<word> 
2
(
motorBikeGroup
wall
)
;
        nFaces          0;
        startFace       264973;
    }
    motorBike_frame:016-shadow%13
    {
        type            wall;
        inGroups        List<word> 
2
(
motorBikeGroup
wall
)
;
        nFaces          0;
        startFace       264973;
    }
    motorBike_rear-susp:014%14
    {
        type            wall;
        inGroups        List<word> 
2
(
motorBikeGroup
wall
)
;
        nFaces          15;
        startFace       264973;
    }
    motorBike_rear-susp:014-shadow%15
    {
        type            wall;
        inGroups        List<word> 
2
(
motorBikeGroup
wall
)
;
        nFaces          7;
        startFace       264988;
    }
    motorBike_frame:016%16
    {
        type            wall;
        inGroups        List<word> 
2
(
motorBikeGroup
wall
)
;
        nFaces          0;
        startFace       264995;
    }
    motorBike_rr-wh-rim:005-shadow%17
    {
        type            wall;
        inGroups        List<word> 
2
(
motorBikeGroup
wall
)
;
        nFaces          56;
        startFace       264995;
    }
    motorBike_rr-wh-chain-hub:022%22
    {
        type            wall;
        inGroups        List<word> 
2
(
motorBikeGroup
wall
)
;
        nFaces          11;
        startFace       265051;
    }
    motorBike_rearseat%24
    {
        type            wall;
        inGroups        List<word> 
2
(
motorBikeGroup
wall
)
;
        nFaces          163;
        startFace       265062;
    }
    motorBike_frt-fairing%25
    {
        type            wall;
        inGroups        List<word> 
2
(
motorBikeGroup
wall
)
;
        nFaces          0;
        startFace       265225;
    }
    motorBike_windshield%26
    {
        type            wall;
        inGroups        List<word> 
2
(
motorBikeGroup
wall
)
;
        nFaces          0;
        startFace       265225;
    }
    motorBike_headlights%27
    {
        type            wall;
        inGroups        List<word> 
2
(
motorBikeGroup
wall
)
;
        nFaces          0;
        startFace       265225;
    }
    motorBike_driversseat%28
    {
        type            wall;
        inGroups        List<word> 
2
(
motorBikeGroup
wall
)
;
        nFaces          79;
        startFace       265225;
    }
    motorBike_rear-body%29
    {
        type            wall;
        inGroups        List<word> 
2
(
motorBikeGroup
wall
)
;
        nFaces          793;
        startFace       265304;
    }
    motorBike_fuel-tank%30
    {
        type            wall;
        inGroups        List<word> 
2
(
motorBikeGroup
wall
)
;
        nFaces          0;
        startFace       266097;
    }
    motorBike_exhaust%31
    {
        type            wall;
        inGroups        List<word> 
2
(
motorBikeGroup
wall
)
;
        nFaces          1071;
        startFace       266097;
    }
    motorBike_rr-wh-rim%32
    {
        type            wall;
        inGroups        List<word> 
2
(
motorBikeGroup
wall
)
;
        nFaces          448;
        startFace       267168;
    }
    motorBike_fr-mud-guard%33
    {
        type            wall;
        inGroups        List<word> 
2
(
motorBikeGroup
wall
)
;
        nFaces          0;
        startFace       267616;
    }
    motorBike_fr-wh-rim%34
    {
        type            wall;
        inGroups        List<word> 
2
(
motorBikeGroup
wall
)
;
        nFaces          0;
        startFace       267616;
    }
    motorBike_fr-wh-brake-disk%35
    {
        type            wall;
        inGroups        List<word> 
2
(
motorBikeGroup
wall
)
;
        nFaces          0;
        startFace       267616;
    }
    motorBike_fr-brake-caliper%36
    {
        type            wall;
        inGroups        List<word> 
2
(
motorBikeGroup
wall
)
;
        nFaces          0;
        startFace       267616;
    }
    motorBike_fr-wh-tyre%37
    {
        type            wall;
        inGroups        List<word> 
2
(
motorBikeGroup
wall
)
;
        nFaces          0;
        startFace       267616;
    }
    motorBike_hbars%38
    {
        type            wall;
        inGroups        List<word> 
2
(
motorBikeGroup
wall
)
;
        nFaces          0;
        startFace       267616;
    }
    motorBike_fr-forks%39
    {
        type            wall;
        inGroups        List<word> 
2
(
motorBikeGroup
wall
)
;
        nFaces          0;
        startFace       267616;
    }
    motorBike_chain%40
    {
        type            wall;
        inGroups        List<word> 
2
(
motorBikeGroup
wall
)
;
        nFaces          0;
        startFace       267616;
    }
    motorBike_rr-wh-tyre%41
    {
        type            wall;
        inGroups        List<word> 
2
(
motorBikeGroup
wall
)
;
        nFaces          736;
        startFace       267616;
    }
    motorBike_square-dial%42
    {
        type            wall;
        inGroups        List<word> 
2
(
motorBikeGroup
wall
)
;
        nFaces          0;
        startFace       268352;
    }
    motorBike_round-dial%43
    {
        type            wall;
        inGroups        List<word> 
2
(
motorBikeGroup
wall
)
;
        nFaces          0;
        startFace       268352;
    }
    motorBike_dial-holder%44
    {
        type            wall;
        inGroups        List<word> 
2
(
motorBikeGroup
wall
)
;
        nFaces          0;
        startFace       268352;
    }
    motorBike_rear-susp%45
    {
        type            wall;
        inGroups        List<word> 
2
(
motorBikeGroup
wall
)
;
        nFaces          432;
        startFace       268352;
    }
    motorBike_rear-brake-lights%46
    {
        type            wall;
        inGroups        List<word> 
2
(
motorBikeGroup
wall
)
;
        nFaces          16;
        startFace       268784;
    }
    motorBike_rear-light-bracket%47
    {
        type            wall;
        inGroups        List<word> 
2
(
motorBikeGroup
wall
)
;
        nFaces          50;
        startFace       268800;
    }
    motorBike_frame%48
    {
        type            wall;
        inGroups        List<word> 
2
(
motorBikeGroup
wall
)
;
        nFaces          5;
        startFace       268850;
    }
    motorBike_rear-mud-guard%49
    {
        type            wall;
        inGroups        List<word> 
2
(
motorBikeGroup
wall
)
;
        nFaces          236;
        startFace       268855;
    }
    motorBike_rear-susp-spring-damp%50
    {
        type            wall;
        inGroups        List<word> 
2
(
motorBikeGroup
wall
)
;
        nFaces          0;
        startFace       269091;
    }
    motorBike_fairing-inner-plate%51
    {
        type            wall;
        inGroups        List<word> 
2
(
motorBikeGroup
wall
)
;
        nFaces          0;
        startFace       269091;
    }
    motorBike_clutch-housing%52
    {
        type            wall;
        inGroups        List<word> 
2
(
motorBikeGroup
wall
)
;
        nFaces          0;
        startFace       269091;
    }
    motorBike_radiator%53
    {
        type            wall;
        inGroups        List<word> 
2
(
motorBikeGroup
wall
)
;
        nFaces          0;
        startFace       269091;
    }
    motorBike_water-pipe%54
    {
        type            wall;
        inGroups        List<word> 
2
(
motorBikeGroup
wall
)
;
        nFaces          0;
        startFace       269091;
    }
    motorBike_water-pump%55
    {
        type            wall;
        inGroups        List<word> 
2
(
motorBikeGroup
wall
)
;
        nFaces          0;
        startFace       269091;
    }
    motorBike_engine%56
    {
        type            wall;
        inGroups        List<word> 
2
(
motorBikeGroup
wall
)
;
        nFaces          0;
        startFace       269091;
    }
    motorBike_rear-shock-link%57
    {
        type            wall;
        inGroups        List<word> 
2
(
motorBikeGroup
wall
)
;
        nFaces          0;
        startFace       269091;
    }
    motorBike_rear-brake-fluid-pot-bracket%58
    {
        type            wall;
        inGroups        List<word> 
2
(
motorBikeGroup
wall
)
;
        nFaces          8;
        startFace       269091;
    }
    motorBike_rear-brake-fluid-pot%59
    {
        type            wall;
        inGroups        List<word> 
2
(
motorBikeGroup
wall
)
;
        nFaces          0;
        startFace       269099;
    }
    motorBike_footpeg%60
    {
        type            wall;
        inGroups        List<word> 
2
(
motorBikeGroup
wall
)
;
        nFaces          0;
        startFace       269099;
    }
    motorBike_rr-wh-chain-hub%61
    {
        type            wall;
        inGroups        List<word> 
2
(
motorBikeGroup
wall
)
;
        nFaces          0;
        startFace       269099;
    }
    motorBike_rear-brake-caliper%62
    {
        type            wall;
        inGroups        List<word> 
2
(
motorBikeGroup
wall
)
;
        nFaces          145;
        startFace       269099;
    }
    motorBike_rider-helmet%65
    {
        type            wall;
        inGroups        List<word> 
2
(
motorBikeGroup
wall
)
;
        nFaces          0;
        startFace       269244;
    }
    motorBike_rider-visor%66
    {
        type            wall;
        inGroups        List<word> 
2
(
motorBikeGroup
wall
)
;
        nFaces          0;
        startFace       269244;
    }
    motorBike_rider-boots%67
    {
        type            wall;
        inGroups        List<word> 
2
(
motorBikeGroup
wall
)
;
        nFaces          86;
        startFace       269244;
    }
    motorBike_rider-gloves%68
    {
        type            wall;
        inGroups        List<word> 
2
(
motorBikeGroup
wall
)
;
        nFaces          0;
        startFace       269330;
    }
    motorBike_rider-body%69
    {
        type            wall;
        inGroups        List<word> 
2
(
motorBikeGroup
wall
)
;
        nFaces          203;
        startFace       269330;
    }
    motorBike_frame:0%70
    {
        type            wall;
        inGroups        List<word> 
2
(
motorBikeGroup
wall
)
;
        nFaces          0;
        startFace       269533;
    }
    motorBike_frt-fairing:001-shadow%74
    {
        type            wall;
        inGroups        List<word> 
2
(
motorBikeGroup
wall
)
;
        nFaces          0;
        startFace       269533;
    }
    motorBike_windshield-shadow%75
    {
        type            wall;
        inGroups        List<word> 
2
(
motorBikeGroup
wall
)
;
        nFaces          0;
        startFace       269533;
    }
    motorBike_fr-mud-guard-shadow%81
    {
        type            wall;
        inGroups        List<word> 
2
(
motorBikeGroup
wall
)
;
        nFaces          0;
        startFace       269533;
    }
    motorBike_fr-wh-brake-disk-shadow%83
    {
        type            wall;
        inGroups        List<word> 
2
(
motorBikeGroup
wall
)
;
        nFaces          0;
        startFace       269533;
    }
    motorBike_rear-mud-guard-shadow%84
    {
        type            wall;
        inGroups        List<word> 
2
(
motorBikeGroup
wall
)
;
        nFaces          138;
        startFace       269533;
    }
    motorBike_rear-susp-spring-damp-shadow%85
    {
        type            wall;
        inGroups        List<word> 
2
(
motorBikeGroup
wall
)
;
        nFaces          0;
        startFace       269671;
    }
    motorBike_radiator-shadow%86
    {
        type            wall;
        inGroups        List<word> 
2
(
motorBikeGroup
wall
)
;
        nFaces          0;
        startFace       269671;
    }
    motorBike_rear-shock-link-shadow%87
    {
        type            wall;
        inGroups        List<word> 
2
(
motorBikeGroup
wall
)
;
        nFaces          0;
        startFace       269671;
    }
    motorBike_rear-brake-fluid-pot-bracket-shadow%88
    {
        type            wall;
        inGroups        List<word> 
2
(
motorBikeGroup
wall
)
;
        nFaces          5;
        startFace       269671;
    }
    motorBike_rr-wh-chain-hub-shadow%89
    {
        type            wall;
        inGroups        List<word> 
2
(
motorBikeGroup
wall
)
;
        nFaces          0;
        startFace       269676;
    }
    procBoundary3to1
    {
        type            processor;
        inGroups        List<word> 1(processor);
        nFaces          6914;
        startFace       269676;
        matchTolerance  0.0001;
        myProcNo        3;
        neighbProcNo    1;
    }
    procBoundary3to2
    {
        type            processor;
        inGroups        List<word> 1(processor);
        nFaces          1663;
        startFace       276590;
        matchTolerance  0.0001;
        myProcNo        3;
        neighbProcNo    2;
    }
)

// ************************************************************************* //
