/*--------------------------------*- C++ -*----------------------------------*\
  =========                 |
  \\      /  F ield         | OpenFOAM: The Open Source CFD Toolbox
   \\    /   O peration     | Website:  https://openfoam.org
    \\  /    A nd           | Version:  8
     \\/     M anipulation  |
\*---------------------------------------------------------------------------*/
FoamFile
{
    version     2.0;
    format      ascii;
    class       polyBoundaryMesh;
    location    "constant/polyMesh";
    object      boundary;
}
// * * * * * * * * * * * * * * * * * * * * * * * * * * * * * * * * * * * * * //

7
(
    frontAndBack
    {
        type            empty;
        physicalType    patch;
        inGroups        List<word> 1(empty);
        nFaces          79672;
        startFace       59402;
    }
    symmetry
    {
        type            symmetry;
        physicalType    patch;
        inGroups        List<word> 1(symmetry);
        nFaces          66;
        startFace       139074;
    }
    inlet
    {
        type            patch;
        physicalType    patch;
        nFaces          60;
        startFace       139140;
    }
    outlet
    {
        type            patch;
        physicalType    patch;
        nFaces          0;
        startFace       139200;
    }
    walls
    {
        type            patch;
        physicalType    patch;
        nFaces          119;
        startFace       139200;
    }
    procBoundary0to1
    {
        type            processor;
        inGroups        List<word> 1(processor);
        nFaces          229;
        startFace       139319;
        matchTolerance  0.0001;
        myProcNo        0;
        neighbProcNo    1;
    }
    procBoundary0to2
    {
        type            processor;
        inGroups        List<word> 1(processor);
        nFaces          230;
        startFace       139548;
        matchTolerance  0.0001;
        myProcNo        0;
        neighbProcNo    2;
    }
)

// ************************************************************************* //
